tests/src/test/resources/files/cases/2_remedial_actions/2_3_redispatching/network_3nodes.uct
##C 2007.05.01
Generated by powsybl, 2025-07-30T17:25:50.970193685+02:00[Europe/Paris]
Case date: 2025-07-30T17:25:50.001712601+02:00[Europe/Paris]
##N
##ZFR
FFR1AA1  FR1          0 2 400.00 0.00000 0.00000 -1000.0 0.00000 9000.00 -9000.0 9000.00 -9000.0                               F
FFR2AA1  FR2          0 2 400.00 0.00000 0.00000 700.000 0.00000 9000.00 -9000.0 9000.00 -9000.0                               F
FFR3AA1  FR2          0 2 400.00 0.00000 0.00000 300.000 0.00000 9000.00 -9000.0 9000.00 -9000.0                               F
##L
FFR1AA1  FFR2AA1  1 0 0.0000 10.000 0.000000   5000
FFR1AA1  FFR3AA1  1 0 0.0000 10.000 0.000000   5000
FFR2AA1  FFR3AA1  1 0 0.0000 10.000 0.000000   5000
##T
##R